8
	Energy:       1.9783103
C         -0.54224        0.91801        0.12895
N          0.48622        0.04178        0.21074
N         -1.04509        1.27596       -1.07571
O         -1.02019        1.38930        1.15001
H         -0.65489        0.88888       -1.94754
H         -1.82835        1.94329       -1.13799
H          0.90211       -0.36600       -0.63951
H          0.86918       -0.23082        1.12820
