9
	Energy:       1.3718528
C         -1.78853        0.21520        0.15656
H         -0.78587        0.05016       -0.29046
H         -2.40085       -0.70029        0.01026
C         -2.44017        1.39900       -0.49199
H         -1.67724        0.40091        1.24537
N         -1.85622        2.61744       -0.43135
O         -3.50354        1.26199       -1.07785
H         -0.95933        2.74574        0.05988
H         -2.30080        3.43433       -0.87593
